[TITLE]


[JUNCTIONS]
;ID              	Elev        	Demand      	Pattern         
 2               	0           	0           	7.2_10min       	;
 6               	0           	0           	7.2_10min       	;
 4               	2           	0           	7.2_10min       	;
 10              	3           	0           	7.2_10min       	;
 11              	3           	0           	7.2_10min       	;
 12              	3           	0           	7.2_10min       	;
 13              	3           	0           	7.2_10min       	;
 14              	1.8         	0           	7.2_10min       	;
 15              	2.8         	0           	7.2_10min       	;
 16              	2.8         	0           	7.2_10min       	;
 17              	2.8         	0           	7.2_10min       	;
 18              	2.8         	0           	7.2_10min       	;
 19              	2.8         	0           	7.2_10min       	;
 V_A             	1           	0           	7.2_10min       	;
 A               	1           	0.016       	7.2_10min       	;
 V_B             	1           	0           	7.2_10min       	;
 B               	1           	0.016       	7.2_10min       	;
 24              	2.8         	0           	7.2_10min       	;
 V_C             	1           	0           	7.2_10min       	;
 C               	1           	0.016       	7.2_10min       	;
 27              	3           	0           	7.2_10min       	;
 28              	3           	0           	7.2_10min       	;
 30              	3           	0           	7.2_10min       	;
 31              	3           	0           	7.2_10min       	;
 V_A_Cold        	1           	0           	7.2_10min       	;
 V_B_Cold        	1           	0           	7.2_10min       	;
 34              	3           	0           	7.2_10min       	;
 V_C_Cold        	1           	0           	7.2_10min       	;
 A_Hot           	1.1         	0           	7.2_10min       	;
 A_Cold          	1.1         	0           	7.2_10min       	;
 B_Hot           	1.1         	0           	7.2_10min       	;
 B_Cold          	1.1         	0           	7.2_10min       	;
 C_Hot           	1.1         	0           	7.2_10min       	;
 C_Cold          	1.1         	0           	7.2_10min       	;
 5               	1.5         	0           	7.2_10min       	;
 7               	0           	0           	7.2_10min       	;
 8               	1.5         	0           	7.2_10min       	;
 V_C_Hot         	1           	0           	                	;
 V_B_Hot         	1           	0           	                	;
 V_A_Hot         	1           	0           	                	;

[RESERVOIRS]
;ID              	Head        	Pattern         
 1               	20          	                	;

[TANKS]
;ID              	Elevation   	InitLevel   	MinLevel    	MaxLevel    	Diameter    	MinVol      	VolCurve        	Overflow

[PIPES]
;ID              	Node1           	Node2           	Length      	Diameter    	Roughness   	MinorLoss   	Status
 1               	1               	2               	1           	24          	0.0015      	1.5         	Open  	;
 2               	2               	6               	2           	24          	0.0015      	1.5         	Open  	;
 3               	4               	5               	1           	14          	0.0015      	1.5         	Open  	;
 6               	6               	10              	2.5         	24          	0.0015      	0           	Open  	;
 7               	10              	11              	4           	24          	0.0015      	0           	Open  	;
 8               	11              	12              	0.3         	24          	0.0015      	0           	Open  	;
 9               	12              	13              	0.5         	14          	0.0015      	0           	Open  	;
 10              	13              	4               	1           	14          	0.0015      	0           	Open  	;
 11              	8               	14              	1           	14          	0.0015      	0           	Open  	;
 12              	14              	15              	1           	14          	0.0015      	0           	Open  	;
 13              	15              	16              	1.6         	14          	0.0015      	0           	Open  	;
 14              	16              	17              	0.3         	14          	0.0015      	0           	Open  	;
 15              	17              	18              	0.1         	14          	0.0015      	0           	Open  	;
 16              	18              	19              	0.5         	14          	0.0015      	0           	Open  	;
 A_Hot           	A_Hot           	V_A_Hot         	0.1         	13          	0.0015      	0           	Open  	;
 A               	V_A             	A               	0.2         	20          	0.0015      	0           	Open  	;
 B_Hot           	B_Hot           	V_B_Hot         	0.1         	13          	0.0015      	0           	Open  	;
 B               	V_B             	B               	0.2         	20          	0.0015      	0           	Open  	;
 21              	17              	24              	0.4         	14          	0.0015      	0           	Open  	;
 C_Hot           	C_Hot           	V_C_Hot         	0.1         	13          	0.0015      	0           	Open  	;
 C               	V_C             	C               	0.2         	20          	0.0015      	0           	Open  	;
 24              	12              	27              	1.5         	14          	0.0015      	0           	Open  	;
 25              	27              	28              	0.3         	14          	0.0015      	0           	Open  	;
 26              	28              	30              	0.1         	14          	0.0015      	0           	Open  	;
 27              	30              	31              	0.5         	14          	0.0015      	0           	Open  	;
 A_Cold          	A_Cold          	V_A_Cold        	0.1         	13          	0.0015      	0           	Open  	;
 B_Cold          	B_Cold          	V_B_Cold        	0.1         	13          	0.0015      	0           	Open  	;
 30              	28              	34              	0.4         	14          	0.0015      	0           	Open  	;
 C_Cold          	C_Cold          	V_C_Cold        	0.1         	13          	0.0015      	0           	Open  	;
 A_Hot_2         	19              	A_Hot           	1.4         	13          	0.0015      	0           	Open  	;
 A_Cold_2        	31              	A_Cold          	1.4         	13          	0.0015      	0           	Open  	;
 B_Hot_2         	18              	B_Hot           	1.4         	13          	0.0015      	0           	Open  	;
 B_Cold_2        	30              	B_Cold          	1.4         	13          	0.0015      	0           	Open  	;
 C_Hot_2         	24              	C_Hot           	1.4         	13          	0.0015      	0           	Open  	;
 C_Cold_2        	34              	C_Cold          	1.4         	13          	0.0015      	0           	Open  	;
 HWH_1           	5               	7               	1.5         	354         	0.0015      	0           	CV    	;
 HWH_2           	7               	8               	1.5         	354         	0.0015      	0           	CV    	;

[PUMPS]
;ID              	Node1           	Node2           	Parameters

[VALVES]
;ID              	Node1           	Node2           	Diameter    	Type	Setting     	MinorLoss   
 VC_A            	V_A_Cold        	V_A             	16          	FCV 	0           	0           	;
 VC_B            	V_B_Cold        	V_B             	16          	FCV 	0           	0           	;
 VC_C            	V_C_Cold        	V_C             	16          	FCV 	0           	0           	;
 VH_C            	V_C_Hot         	V_C             	16          	FCV 	0           	0           	;
 VH_B            	V_B_Hot         	V_B             	16          	FCV 	0           	0           	;
 VH_A            	V_A_Hot         	V_A             	16          	FCV 	0           	0           	;

[TAGS]
 LINK 	A_Hot           	rig
 LINK 	A               	shower
 LINK 	B_Hot           	rig
 LINK 	B               	shower
 LINK 	C_Hot           	rig
 LINK 	C               	shower
 LINK 	A_Cold          	rig
 LINK 	B_Cold          	rig
 LINK 	C_Cold          	rig
 LINK 	A_Hot_2         	rig
 LINK 	A_Cold_2        	rig
 LINK 	B_Hot_2         	rig
 LINK 	B_Cold_2        	rig
 LINK 	C_Hot_2         	rig
 LINK 	C_Cold_2        	rig
 LINK 	VC_A            	rig
 LINK 	VC_B            	rig
 LINK 	VC_C            	rig

[DEMANDS]
;Junction        	Demand      	Pattern         	Category

[STATUS]
;ID              	Status/Setting

[PATTERNS]
;ID              	Multipliers
;
 7.2_10min       	0.000000    	0.000000    	0.000000    	0.000000    	0.000000    	0.000000    
 7.2_10min       	0.000000    	0.000000    	0.000000    	0.000000    	0.000000    	0.000000    
 7.2_10min       	0.000000    	0.000000    	0.000000    	0.000000    	0.000000    	0.000000    
 7.2_10min       	0.000000    	0.000000    	0.000000    	0.000000    	0.000000    	0.000000    
 7.2_10min       	0.000000    	0.000000    	0.000000    	0.000000    	0.000000    	0.000000    
 7.2_10min       	0.000000    	0.000000    	0.000000    	0.000000    	0.000000    	0.000000    
 7.2_10min       	0.000000    	0.000000    	0.000000    	0.000000    	0.000000    	0.000000    
 7.2_10min       	0.000000    	0.000000    	0.000000    	0.000000    	0.000000    	0.000000    
 7.2_10min       	0.000000    	0.000000    	0.000000    	0.000000    	0.000000    	0.000000    
 7.2_10min       	0.000000    	0.000000    	0.000000    	0.000000    	0.000000    	0.000000    
 7.2_10min       	0.000000    	0.000000    	0.000000    	0.000000    	0.000000    	0.000000    
 7.2_10min       	0.000000    	0.000000    	0.000000    	0.000000    	0.000000    	0.000000    
 7.2_10min       	0.000000    	0.000000    	0.000000    	0.000000    	0.000000    	0.000000    
 7.2_10min       	0.000000    	0.000000    	0.000000    	0.000000    	0.000000    	0.000000    
 7.2_10min       	0.000000    	0.000000    	0.000000    	0.000000    	0.000000    	0.000000    
 7.2_10min       	0.000000    	0.000000    	0.000000    	0.000000    	0.000000    	0.000000    
 7.2_10min       	0.000000    	0.000000    	0.000000    	0.000000    	0.000000    	0.000000    
 7.2_10min       	0.000000    	0.000000    	0.000000    	0.000000    	0.000000    	0.000000    
 7.2_10min       	0.000000    	0.000000    	0.000000    	0.000000    	0.000000    	0.000000    
 7.2_10min       	0.000000    	0.000000    	0.000000    	0.000000    	0.000000    	0.000000    
 7.2_10min       	0.000000    	0.000000    	0.000000    	0.000000    	0.000000    	0.000000    
 7.2_10min       	0.000000    	0.000000    	0.000000    	0.000000    	0.000000    	0.000000    
 7.2_10min       	0.000000    	0.000000    	0.000000    	0.000000    	0.000000    	0.000000    
 7.2_10min       	0.000000    	0.000000    	0.000000    	0.000000    	0.000000    	0.000000    
 7.2_10min       	0.000000    	0.000000    	0.000000    	0.000000    	0.000000    	0.000000    
 7.2_10min       	0.000000    	0.000000    	0.000000    	0.000000    	0.000000    	0.000000    
 7.2_10min       	0.000000    	0.000000    	0.000000    	0.000000    	0.000000    	0.000000    
 7.2_10min       	0.000000    	0.000000    	0.000000    	0.000000    	0.000000    	0.000000    
 7.2_10min       	0.000000    	0.000000    	0.000000    	0.000000    	0.000000    	0.000000    
 7.2_10min       	0.000000    	0.000000    	0.000000    	0.000000    	0.000000    	0.000000    
 7.2_10min       	0.000000    	0.000000    	0.000000    	0.000000    	0.000000    	0.000000    
 7.2_10min       	0.000000    	0.000000    	0.000000    	0.000000    	0.000000    	0.000000    
 7.2_10min       	0.000000    	0.000000    	0.000000    	0.000000    	0.000000    	0.000000    
 7.2_10min       	0.000000    	0.000000    	0.000000    	0.000000    	0.000000    	0.000000    
 7.2_10min       	0.000000    	0.000000    	0.000000    	0.000000    	0.000000    	0.000000    
 7.2_10min       	0.000000    	0.000000    	0.000000    	0.000000    	0.000000    	0.000000    
 7.2_10min       	0.000000    	0.000000    	0.000000    	0.000000    	0.000000    	0.000000    
 7.2_10min       	0.000000    	0.000000    	0.000000    	0.000000    	0.000000    	0.000000    
 7.2_10min       	0.000000    	0.000000    	0.000000    	0.000000    	0.000000    	0.000000    
 7.2_10min       	0.000000    	0.000000    	0.000000    	0.000000    	0.000000    	0.000000    
 7.2_10min       	0.000000    	0.000000    	0.000000    	0.000000    	0.000000    	0.000000    
 7.2_10min       	0.000000    	0.000000    	0.000000    	0.000000    	0.000000    	0.000000    
 7.2_10min       	0.000000    	0.000000    	0.000000    	0.000000    	0.000000    	0.000000    
 7.2_10min       	0.000000    	0.000000    	0.000000    	0.000000    	0.000000    	0.000000    
 7.2_10min       	0.000000    	0.000000    	0.000000    	0.000000    	0.000000    	0.000000    
 7.2_10min       	0.000000    	0.000000    	0.000000    	0.000000    	0.000000    	0.000000    
 7.2_10min       	0.000000    	0.000000    	0.000000    	0.000000    	0.000000    	0.000000    
 7.2_10min       	0.000000    	0.000000    	0.000000    	0.000000    	0.000000    	0.000000    
 7.2_10min       	0.000000    	0.000000    	0.000000    	0.000000    	0.000000    	0.000000    
 7.2_10min       	0.000000    	0.000000    	0.000000    	0.000000    	0.000000    	0.000000    
 7.2_10min       	0.000000    	0.000000    	0.000000    	0.000000    	0.000000    	0.000000    
 7.2_10min       	0.000000    	0.000000    	0.000000    	0.000000    	0.000000    	0.000000    
 7.2_10min       	0.000000    	0.000000    	0.000000    	0.000000    	0.000000    	0.000000    
 7.2_10min       	0.000000    	0.000000    	0.000000    	0.000000    	0.000000    	0.000000    
 7.2_10min       	0.000000    	0.000000    	0.000000    	0.000000    	0.000000    	0.000000    
 7.2_10min       	0.000000    	0.000000    	0.000000    	0.000000    	0.000000    	0.000000    
 7.2_10min       	0.000000    	0.000000    	0.000000    	0.000000    	0.000000    	0.000000    
 7.2_10min       	0.000000    	0.000000    	0.000000    	0.000000    	0.000000    	0.000000    
 7.2_10min       	0.000000    	0.000000    	0.000000    	0.000000    	0.000000    	0.000000    
 7.2_10min       	0.000000    	0.000000    	0.000000    	0.000000    	0.000000    	0.000000    
 7.2_10min       	0.000000    	0.000000    	0.000000    	0.000000    	0.000000    	0.000000    
 7.2_10min       	0.000000    	0.000000    	0.000000    	0.000000    	0.000000    	0.000000    
 7.2_10min       	0.000000    	0.000000    	0.000000    	0.000000    	0.000000    	0.000000    
 7.2_10min       	0.000000    	0.000000    	0.000000    	0.000000    	0.000000    	0.000000    
 7.2_10min       	0.000000    	0.000000    	0.000000    	0.000000    	0.000000    	0.000000    
 7.2_10min       	0.000000    	0.000000    	0.000000    	0.000000    	0.000000    	0.000000    
 7.2_10min       	0.000000    	0.000000    	0.000000    	0.000000    	0.000000    	0.000000    
 7.2_10min       	0.000000    	0.000000    	0.000000    	0.000000    	0.000000    	0.000000    
 7.2_10min       	0.000000    	0.000000    	0.000000    	0.000000    	0.000000    	0.000000    
 7.2_10min       	0.000000    	0.000000    	0.000000    	0.000000    	0.000000    	0.000000    
 7.2_10min       	0.000000    	0.000000    	0.000000    	0.000000    	0.000000    	0.000000    
 7.2_10min       	0.000000    	0.000000    	0.000000    	0.000000    	0.000000    	0.000000    
 7.2_10min       	0.000000    	0.000000    	0.000000    	0.000000    	0.000000    	0.000000    
 7.2_10min       	0.000000    	0.000000    	0.000000    	0.000000    	0.000000    	0.000000    
 7.2_10min       	0.000000    	0.000000    	0.000000    	0.000000    	0.000000    	0.000000    
 7.2_10min       	0.000000    	0.000000    	0.000000    	0.000000    	0.000000    	0.000000    
 7.2_10min       	0.000000    	0.000000    	0.000000    	0.000000    	0.000000    	0.000000    
 7.2_10min       	0.000000    	0.000000    	0.000000    	0.000000    	0.000000    	0.000000    
 7.2_10min       	0.000000    	0.000000    	0.000000    	0.000000    	0.000000    	0.000000    
 7.2_10min       	0.000000    	0.000000    	0.000000    	0.000000    	0.000000    	0.000000    
 7.2_10min       	0.000000    	0.000000    	0.000000    	0.000000    	0.000000    	0.000000    
 7.2_10min       	0.000000    	0.000000    	0.000000    	0.000000    	0.000000    	0.000000    
 7.2_10min       	0.000000    	0.000000    	0.000000    	0.000000    	0.000000    	0.000000    
 7.2_10min       	0.000000    	0.000000    	0.000000    	0.000000    	0.000000    	0.000000    
 7.2_10min       	0.000000    	0.000000    	0.000000    	0.000000    	0.000000    	0.000000    
 7.2_10min       	0.000000    	0.000000    	0.000000    	0.000000    	0.000000    	0.000000    
 7.2_10min       	0.000000    	0.000000    	0.000000    	0.000000    	0.000000    	0.000000    
 7.2_10min       	0.000000    	0.000000    	0.000000    	0.000000    	0.000000    	0.000000    
 7.2_10min       	0.000000    	0.000000    	0.000000    	0.000000    	0.000000    	0.000000    
 7.2_10min       	0.000000    	0.000000    	0.000000    	0.000000    	0.000000    	0.000000    
 7.2_10min       	0.000000    	0.000000    	0.000000    	0.000000    	0.000000    	0.000000    
 7.2_10min       	0.000000    	0.000000    	0.000000    	0.000000    	0.000000    	0.000000    
 7.2_10min       	0.000000    	0.000000    	0.000000    	0.000000    	0.000000    	0.000000    
 7.2_10min       	0.000000    	0.000000    	0.000000    	0.000000    	0.000000    	0.000000    
 7.2_10min       	0.000000    	0.000000    	0.000000    	0.000000    	0.000000    	0.000000    
 7.2_10min       	0.000000    	0.000000    	0.000000    	0.000000    	0.000000    	0.000000    
 7.2_10min       	0.000000    	0.000000    	0.000000    	0.000000    	0.000000    	0.000000    
 7.2_10min       	0.000000    	0.000000    	0.000000    	0.000000    	0.000000    	0.000000    
 7.2_10min       	0.000000    	0.000000    	0.000000    	0.000000    	0.000000    	0.000000    
 7.2_10min       	0.000000    	0.000000    	0.000000    	0.000000    	0.000000    	0.000000    
 7.2_10min       	7.500000    	7.500000    	7.500000    	7.500000    	7.500000    	7.500000    
 7.2_10min       	7.500000    	7.500000    	7.500000    	7.500000    	7.500000    	7.500000    
 7.2_10min       	7.500000    	7.500000    	7.500000    	7.500000    	7.500000    	7.500000    
 7.2_10min       	7.500000    	7.500000    	7.500000    	7.500000    	7.500000    	7.500000    
 7.2_10min       	7.500000    	7.500000    	7.500000    	7.500000    	7.500000    	7.500000    
 7.2_10min       	7.500000    	7.500000    	7.500000    	7.500000    	7.500000    	7.500000    
 7.2_10min       	7.500000    	7.500000    	7.500000    	7.500000    	7.500000    	7.500000    
 7.2_10min       	7.500000    	7.500000    	7.500000    	7.500000    	7.500000    	7.500000    
 7.2_10min       	7.500000    	7.500000    	7.500000    	7.500000    	7.500000    	7.500000    
 7.2_10min       	7.500000    	7.500000    	7.500000    	7.500000    	7.500000    	7.500000    
 7.2_10min       	7.500000    	7.500000    	7.500000    	7.500000    	7.500000    	7.500000    
 7.2_10min       	7.500000    	7.500000    	7.500000    	7.500000    	7.500000    	7.500000    
 7.2_10min       	7.500000    	7.500000    	7.500000    	7.500000    	7.500000    	7.500000    
 7.2_10min       	7.500000    	7.500000    	7.500000    	7.500000    	7.500000    	7.500000    
 7.2_10min       	7.500000    	7.500000    	7.500000    	7.500000    	7.500000    	7.500000    
 7.2_10min       	7.500000    	7.500000    	7.500000    	7.500000    	7.500000    	7.500000    
 7.2_10min       	7.500000    	7.500000    	7.500000    	7.500000    	7.500000    	7.500000    
 7.2_10min       	7.500000    	7.500000    	7.500000    	7.500000    	7.500000    	7.500000    
 7.2_10min       	7.500000    	7.500000    	7.500000    	7.500000    	7.500000    	7.500000    
 7.2_10min       	7.500000    	7.500000    	7.500000    	7.500000    	7.500000    	7.500000    
 7.2_10min       	7.500000    	7.500000    	7.500000    	7.500000    	7.500000    	7.500000    
 7.2_10min       	7.500000    	7.500000    	7.500000    	7.500000    	7.500000    	7.500000    
 7.2_10min       	7.500000    	7.500000    	7.500000    	7.500000    	7.500000    	7.500000    
 7.2_10min       	7.500000    	7.500000    	7.500000    	7.500000    	7.500000    	7.500000    
 7.2_10min       	7.500000    	7.500000    	7.500000    	7.500000    	7.500000    	7.500000    
 7.2_10min       	7.500000    	7.500000    	7.500000    	7.500000    	7.500000    	7.500000    
 7.2_10min       	7.500000    	7.500000    	7.500000    	7.500000    	7.500000    	7.500000    
 7.2_10min       	7.500000    	7.500000    	7.500000    	7.500000    	7.500000    	7.500000    
 7.2_10min       	7.500000    	7.500000    	7.500000    	7.500000    	7.500000    	7.500000    
 7.2_10min       	7.500000    	7.500000    	7.500000    	7.500000    	7.500000    	7.500000    
 7.2_10min       	7.500000    	7.500000    	7.500000    	7.500000    	7.500000    	7.500000    
 7.2_10min       	7.500000    	7.500000    	7.500000    	7.500000    	7.500000    	7.500000    
 7.2_10min       	7.500000    	7.500000    	7.500000    	7.500000    	7.500000    	7.500000    
 7.2_10min       	7.500000    	7.500000    	7.500000    	7.500000    	7.500000    	7.500000    
 7.2_10min       	7.500000    	7.500000    	7.500000    	7.500000    	7.500000    	7.500000    
 7.2_10min       	7.500000    	7.500000    	7.500000    	7.500000    	7.500000    	7.500000    
 7.2_10min       	7.500000    	7.500000    	7.500000    	7.500000    	7.500000    	7.500000    
 7.2_10min       	7.500000    	7.500000    	7.500000    	7.500000    	7.500000    	7.500000    
 7.2_10min       	7.500000    	7.500000    	7.500000    	7.500000    	7.500000    	7.500000    
 7.2_10min       	7.500000    	7.500000    	7.500000    	7.500000    	7.500000    	7.500000    
 7.2_10min       	7.500000    	7.500000    	7.500000    	7.500000    	7.500000    	7.500000    
 7.2_10min       	7.500000    	7.500000    	7.500000    	7.500000    	7.500000    	7.500000    
 7.2_10min       	7.500000    	7.500000    	7.500000    	7.500000    	7.500000    	7.500000    
 7.2_10min       	7.500000    	7.500000    	7.500000    	7.500000    	7.500000    	7.500000    
 7.2_10min       	7.500000    	7.500000    	7.500000    	7.500000    	7.500000    	7.500000    
 7.2_10min       	7.500000    	7.500000    	7.500000    	7.500000    	7.500000    	7.500000    
 7.2_10min       	7.500000    	7.500000    	7.500000    	7.500000    	7.500000    	7.500000    
 7.2_10min       	7.500000    	7.500000    	7.500000    	7.500000    	7.500000    	7.500000    
 7.2_10min       	7.500000    	7.500000    	7.500000    	7.500000    	7.500000    	7.500000    
 7.2_10min       	7.500000    	7.500000    	7.500000    	7.500000    	7.500000    	7.500000    
 7.2_10min       	7.500000    	7.500000    	7.500000    	7.500000    	7.500000    	7.500000    
 7.2_10min       	7.500000    	7.500000    	7.500000    	7.500000    	7.500000    	7.500000    
 7.2_10min       	7.500000    	7.500000    	7.500000    	7.500000    	7.500000    	7.500000    
 7.2_10min       	7.500000    	7.500000    	7.500000    	7.500000    	7.500000    	7.500000    
 7.2_10min       	7.500000    	7.500000    	7.500000    	7.500000    	7.500000    	7.500000    
 7.2_10min       	7.500000    	7.500000    	7.500000    	7.500000    	7.500000    	7.500000    
 7.2_10min       	7.500000    	7.500000    	7.500000    	7.500000    	7.500000    	7.500000    
 7.2_10min       	7.500000    	7.500000    	7.500000    	7.500000    	7.500000    	7.500000    
 7.2_10min       	7.500000    	7.500000    	7.500000    	7.500000    	7.500000    	7.500000    
 7.2_10min       	7.500000    	7.500000    	7.500000    	7.500000    	7.500000    	7.500000    
 7.2_10min       	7.500000    	7.500000    	7.500000    	7.500000    	7.500000    	7.500000    
 7.2_10min       	7.500000    	7.500000    	7.500000    	7.500000    	7.500000    	7.500000    
 7.2_10min       	7.500000    	7.500000    	7.500000    	7.500000    	7.500000    	7.500000    
 7.2_10min       	7.500000    	7.500000    	7.500000    	7.500000    	7.500000    	7.500000    
 7.2_10min       	7.500000    	7.500000    	7.500000    	7.500000    	7.500000    	7.500000    
 7.2_10min       	7.500000    	7.500000    	7.500000    	7.500000    	7.500000    	7.500000    
 7.2_10min       	7.500000    	7.500000    	7.500000    	7.500000    	7.500000    	7.500000    
 7.2_10min       	7.500000    	7.500000    	7.500000    	7.500000    	7.500000    	7.500000    
 7.2_10min       	7.500000    	7.500000    	7.500000    	7.500000    	7.500000    	7.500000    
 7.2_10min       	7.500000    	7.500000    	7.500000    	7.500000    	7.500000    	7.500000    
 7.2_10min       	7.500000    	7.500000    	7.500000    	7.500000    	7.500000    	7.500000    
 7.2_10min       	7.500000    	7.500000    	7.500000    	7.500000    	7.500000    	7.500000    
 7.2_10min       	7.500000    	7.500000    	7.500000    	7.500000    	7.500000    	7.500000    
 7.2_10min       	7.500000    	7.500000    	7.500000    	7.500000    	7.500000    	7.500000    
 7.2_10min       	7.500000    	7.500000    	7.500000    	7.500000    	7.500000    	7.500000    
 7.2_10min       	7.500000    	7.500000    	7.500000    	7.500000    	7.500000    	7.500000    
 7.2_10min       	7.500000    	7.500000    	7.500000    	7.500000    	7.500000    	7.500000    
 7.2_10min       	7.500000    	7.500000    	7.500000    	7.500000    	7.500000    	7.500000    
 7.2_10min       	7.500000    	7.500000    	7.500000    	7.500000    	7.500000    	7.500000    
 7.2_10min       	7.500000    	7.500000    	7.500000    	7.500000    	7.500000    	7.500000    
 7.2_10min       	7.500000    	7.500000    	7.500000    	7.500000    	7.500000    	7.500000    
 7.2_10min       	7.500000    	7.500000    	7.500000    	7.500000    	7.500000    	7.500000    
 7.2_10min       	7.500000    	7.500000    	7.500000    	7.500000    	7.500000    	7.500000    
 7.2_10min       	7.500000    	7.500000    	7.500000    	7.500000    	7.500000    	7.500000    
 7.2_10min       	7.500000    	7.500000    	7.500000    	7.500000    	7.500000    	7.500000    
 7.2_10min       	7.500000    	7.500000    	7.500000    	7.500000    	7.500000    	7.500000    
 7.2_10min       	7.500000    	7.500000    	7.500000    	7.500000    	7.500000    	7.500000    
 7.2_10min       	7.500000    	7.500000    	7.500000    	7.500000    	7.500000    	7.500000    
 7.2_10min       	7.500000    	7.500000    	7.500000    	7.500000    	7.500000    	7.500000    
 7.2_10min       	7.500000    	7.500000    	7.500000    	7.500000    	7.500000    	7.500000    
 7.2_10min       	7.500000    	7.500000    	7.500000    	7.500000    	7.500000    	7.500000    
 7.2_10min       	7.500000    	7.500000    	7.500000    	7.500000    	7.500000    	7.500000    
 7.2_10min       	7.500000    	7.500000    	7.500000    	7.500000    	7.500000    	7.500000    
 7.2_10min       	7.500000    	7.500000    	7.500000    	7.500000    	7.500000    	7.500000    
 7.2_10min       	7.500000    	7.500000    	7.500000    	7.500000    	7.500000    	7.500000    
 7.2_10min       	7.500000    	7.500000    	7.500000    	7.500000    	7.500000    	7.500000    
 7.2_10min       	7.500000    	7.500000    	7.500000    	7.500000    	7.500000    	7.500000    
 7.2_10min       	7.500000    	7.500000    	7.500000    	7.500000    	7.500000    	7.500000    
 7.2_10min       	7.500000    	7.500000    	7.500000    	7.500000    	7.500000    	7.500000    
 7.2_10min       	7.500000    	7.500000    	7.500000    	7.500000    	7.500000    	7.500000    
 7.2_10min       	0.000000    	0.000000    	0.000000    	0.000000    	0.000000    	0.000000    
 7.2_10min       	0.000000    	0.000000    	0.000000    	0.000000    	0.000000    	0.000000    
 7.2_10min       	0.000000    	0.000000    	0.000000    	0.000000    	0.000000    	0.000000    
 7.2_10min       	0.000000    	0.000000    	0.000000    	0.000000    	0.000000    	0.000000    
 7.2_10min       	0.000000    	0.000000    	0.000000    	0.000000    	0.000000    	0.000000    
 7.2_10min       	0.000000    	0.000000    	0.000000    	0.000000    	0.000000    	0.000000    
 7.2_10min       	0.000000    	0.000000    	0.000000    	0.000000    	0.000000    	0.000000    
 7.2_10min       	0.000000    	0.000000    	0.000000    	0.000000    	0.000000    	0.000000    
 7.2_10min       	0.000000    	0.000000    	0.000000    	0.000000    	0.000000    	0.000000    
 7.2_10min       	0.000000    	0.000000    	0.000000    	0.000000    	0.000000    	0.000000    
 7.2_10min       	0.000000    	0.000000    	0.000000    	0.000000    	0.000000    	0.000000    
 7.2_10min       	0.000000    	0.000000    	0.000000    	0.000000    	0.000000    	0.000000    
 7.2_10min       	0.000000    	0.000000    	0.000000    	0.000000    	0.000000    	0.000000    
 7.2_10min       	0.000000    	0.000000    	0.000000    	0.000000    	0.000000    	0.000000    
 7.2_10min       	0.000000    	0.000000    	0.000000    	0.000000    	0.000000    	0.000000    
 7.2_10min       	0.000000    	0.000000    	0.000000    	0.000000    	0.000000    	0.000000    
 7.2_10min       	0.000000    	0.000000    	0.000000    	0.000000    	0.000000    	0.000000    
 7.2_10min       	0.000000    	0.000000    	0.000000    	0.000000    	0.000000    	0.000000    
 7.2_10min       	0.000000    	0.000000    	0.000000    	0.000000    	0.000000    	0.000000    
 7.2_10min       	0.000000    	0.000000    	0.000000    	0.000000    	0.000000    	0.000000    
 7.2_10min       	0.000000    	0.000000    	0.000000    	0.000000    	0.000000    	0.000000    
 7.2_10min       	0.000000    	0.000000    	0.000000    	0.000000    	0.000000    	0.000000    
 7.2_10min       	0.000000    	0.000000    	0.000000    	0.000000    	0.000000    	0.000000    